Version 4
SHEET 1 880 680
WIRE 224 160 48 160
WIRE 384 176 384 96
WIRE 224 208 224 160
WIRE 320 208 224 208
WIRE 656 224 464 224
WIRE 752 224 656 224
WIRE 320 240 224 240
WIRE 224 304 224 240
WIRE 224 304 48 304
WIRE 656 336 656 304
WIRE 752 336 752 288
FLAG -32 160 0
FLAG -32 304 0
FLAG 656 336 0
FLAG 752 336 0
FLAG 384 16 0
SYMBOL voltage 384 112 R180
WINDOW 0 24 96 Left 2
WINDOW 3 24 16 Left 2
WINDOW 123 0 0 Left 0
WINDOW 39 0 0 Left 0
SYMATTR InstName V1
SYMATTR Value 1
SYMBOL voltage 64 160 R90
WINDOW 0 -32 56 VBottom 2
WINDOW 3 32 56 VTop 2
WINDOW 123 0 0 Left 0
WINDOW 39 0 0 Left 0
SYMATTR InstName V2
SYMATTR Value PULSE(0 1 10n 10p 10p 20n 40n)
SYMBOL voltage 64 304 R90
WINDOW 0 -32 56 VBottom 2
WINDOW 3 32 56 VTop 2
WINDOW 123 0 0 Left 0
WINDOW 39 0 0 Left 0
SYMATTR InstName V3
SYMATTR Value PULSE(0 1 10n 10p 10p 40n 80n)
SYMBOL res 640 208 R0
SYMATTR InstName R1
SYMATTR Value 100k
SYMBOL cap 736 224 R0
SYMATTR InstName C1
SYMATTR Value 100f
SYMBOL nand_2 384 224 R0
SYMATTR InstName X1
TEXT 488 -64 Left 2 !.include 90nm_bulk.txt
TEXT 488 -40 Left 2 !.tran 160n
