Version 4
SHEET 1 2416 680
WIRE 256 -592 256 -640
WIRE -128 -512 -160 -512
WIRE 112 -512 -48 -512
WIRE 256 -480 256 -512
WIRE 112 -448 112 -512
WIRE 192 -448 112 -448
WIRE 336 -432 320 -432
WIRE 368 -432 336 -432
WIRE 496 -432 368 -432
WIRE 192 -416 112 -416
WIRE 1776 -416 1776 -448
WIRE 1968 -416 1968 -448
WIRE 2160 -416 2160 -448
WIRE 2352 -416 2352 -448
WIRE 1648 -400 1648 -448
WIRE 1840 -400 1840 -448
WIRE 2032 -400 2032 -448
WIRE 2224 -400 2224 -448
WIRE 368 -384 368 -432
WIRE 496 -384 496 -432
WIRE -128 -352 -160 -352
WIRE 112 -352 112 -416
WIRE 112 -352 -48 -352
WIRE 1648 -288 1648 -336
WIRE 1712 -288 1648 -288
WIRE 1776 -288 1776 -336
WIRE 1776 -288 1712 -288
WIRE 1840 -288 1840 -336
WIRE 1904 -288 1840 -288
WIRE 1968 -288 1968 -336
WIRE 1968 -288 1904 -288
WIRE 2032 -288 2032 -336
WIRE 2096 -288 2032 -288
WIRE 2160 -288 2160 -336
WIRE 2160 -288 2096 -288
WIRE 2224 -288 2224 -336
WIRE 2288 -288 2224 -288
WIRE 2352 -288 2352 -336
WIRE 2352 -288 2288 -288
WIRE 368 -272 368 -304
WIRE 496 -272 496 -320
WIRE 1264 -256 1264 -288
WIRE 912 -176 880 -176
WIRE 1152 -176 992 -176
WIRE 1712 -160 1712 -288
WIRE 1712 -160 1552 -160
WIRE 1264 -144 1264 -176
WIRE 1296 -144 1264 -144
WIRE 1904 -128 1904 -288
WIRE 1904 -128 1552 -128
WIRE 1152 -96 1152 -176
WIRE 1296 -96 1152 -96
WIRE 2096 -96 2096 -288
WIRE 2096 -96 1552 -96
WIRE 2288 -64 2288 -288
WIRE 2288 -64 1552 -64
WIRE 912 -48 880 -48
WIRE 1296 -48 992 -48
WIRE -160 -32 -192 -32
WIRE 128 -32 -80 -32
WIRE 2288 -32 1552 -32
WIRE 256 -16 256 -64
WIRE 1296 0 1152 0
WIRE 2096 0 1552 0
WIRE 1904 32 1552 32
WIRE 1296 48 1264 48
WIRE 1712 64 1552 64
WIRE 912 80 880 80
WIRE 1152 80 1152 0
WIRE 1152 80 992 80
WIRE 1264 80 1264 48
WIRE -160 96 -192 96
WIRE 80 96 -80 96
WIRE 256 96 256 64
WIRE 128 128 128 -32
WIRE 160 128 128 128
WIRE 80 160 80 96
WIRE 160 160 80 160
WIRE 448 176 416 176
WIRE 528 176 448 176
WIRE 160 192 80 192
WIRE 1264 192 1264 160
WIRE 1712 192 1712 64
WIRE 1712 192 1648 192
WIRE 1776 192 1712 192
WIRE 1904 192 1904 32
WIRE 1904 192 1840 192
WIRE 1968 192 1904 192
WIRE 2096 192 2096 0
WIRE 2096 192 2032 192
WIRE 2160 192 2096 192
WIRE 2288 192 2288 -32
WIRE 2288 192 2224 192
WIRE 2352 192 2288 192
WIRE 160 224 128 224
WIRE 448 224 448 176
WIRE 528 224 528 176
WIRE 1648 240 1648 192
WIRE 1776 240 1776 192
WIRE 1840 240 1840 192
WIRE 1968 240 1968 192
WIRE 2032 240 2032 192
WIRE 2160 240 2160 192
WIRE 2224 240 2224 192
WIRE 2352 240 2352 192
WIRE -160 256 -192 256
WIRE 80 256 80 192
WIRE 80 256 -80 256
WIRE 448 336 448 304
WIRE 528 336 528 288
WIRE 1648 352 1648 320
WIRE 1776 352 1776 304
WIRE 1840 352 1840 320
WIRE 1968 352 1968 304
WIRE 2032 352 2032 320
WIRE 2160 352 2160 304
WIRE 2224 352 2224 320
WIRE 2352 352 2352 304
WIRE -160 384 -192 384
WIRE 128 384 128 224
WIRE 128 384 -80 384
FLAG -192 -32 0
FLAG 256 -64 0
FLAG 528 336 0
FLAG 448 336 0
FLAG -192 96 0
FLAG -192 384 0
FLAG -192 256 0
FLAG 880 -176 0
FLAG 880 -48 0
FLAG 880 80 0
FLAG 1264 192 0
FLAG 1264 -288 0
FLAG 256 -640 0
FLAG 496 -272 0
FLAG 368 -272 0
FLAG -160 -512 0
FLAG -160 -352 0
FLAG 1648 -448 0
FLAG 1776 -448 0
FLAG 1840 -448 0
FLAG 1968 -448 0
FLAG 2032 -448 0
FLAG 2160 -448 0
FLAG 2224 -448 0
FLAG 2352 -448 0
FLAG 2352 352 0
FLAG 2224 352 0
FLAG 2160 352 0
FLAG 2032 352 0
FLAG 1968 352 0
FLAG 1840 352 0
FLAG 1776 352 0
FLAG 1648 352 0
SYMBOL voltage -64 -32 R90
WINDOW 0 -32 56 VBottom 2
WINDOW 3 32 56 VTop 2
WINDOW 123 0 0 Left 0
WINDOW 39 0 0 Left 0
SYMATTR InstName V1
SYMATTR Value PULSE(0 1 10n 10p 10p 10n 20n)
SYMBOL voltage 256 80 R180
WINDOW 0 24 96 Left 2
WINDOW 3 24 16 Left 2
WINDOW 123 0 0 Left 0
WINDOW 39 0 0 Left 0
SYMATTR InstName V5
SYMATTR Value 1
SYMBOL res 432 208 R0
SYMATTR InstName R1
SYMATTR Value 100k
SYMBOL cap 512 224 R0
SYMATTR InstName C1
SYMATTR Value 100f
SYMBOL voltage -64 96 R90
WINDOW 0 -32 56 VBottom 2
WINDOW 3 32 56 VTop 2
WINDOW 123 0 0 Left 0
WINDOW 39 0 0 Left 0
SYMATTR InstName V2
SYMATTR Value PULSE(0 1 10n 10p 10p 20n 40n)
SYMBOL voltage -64 384 R90
WINDOW 0 -32 56 VBottom 2
WINDOW 3 32 56 VTop 2
WINDOW 123 0 0 Left 0
WINDOW 39 0 0 Left 0
SYMATTR InstName V4
SYMATTR Value PULSE(0 1 10n 10p 10p 80n 160n)
SYMBOL voltage -64 256 R90
WINDOW 0 -32 56 VBottom 2
WINDOW 3 32 56 VTop 2
WINDOW 123 0 0 Left 0
WINDOW 39 0 0 Left 0
SYMATTR InstName V3
SYMATTR Value PULSE(0 1 10n 10p 10p 40n 80n)
SYMBOL voltage 1008 -48 R90
WINDOW 0 -32 56 VBottom 2
WINDOW 3 32 56 VTop 2
WINDOW 123 0 0 Left 0
WINDOW 39 0 0 Left 0
SYMATTR InstName V7
SYMATTR Value PULSE(0 1 40n 10p 10p 40n 80n)
SYMBOL voltage 1008 -176 M270
WINDOW 0 32 56 VTop 2
WINDOW 3 -32 56 VBottom 2
WINDOW 123 0 0 Left 0
WINDOW 39 0 0 Left 0
SYMATTR InstName V6
SYMATTR Value PULSE(0 1 20n 10p 10p 20n 40n)
SYMBOL voltage 1008 80 R90
WINDOW 0 -32 56 VBottom 2
WINDOW 3 32 56 VTop 2
WINDOW 123 0 0 Left 0
WINDOW 39 0 0 Left 0
SYMATTR InstName V8
SYMATTR Value PULSE(0 1 80n 10p 10p 80n 160n)
SYMBOL voltage 1264 64 R0
WINDOW 123 0 0 Left 0
WINDOW 39 0 0 Left 0
SYMATTR InstName V9
SYMATTR Value PULSE(0 1 5n 10p 10p 10n 20n)
SYMBOL voltage 1264 -160 R180
WINDOW 0 24 96 Left 2
WINDOW 3 24 16 Left 2
WINDOW 123 0 0 Left 0
WINDOW 39 0 0 Left 0
SYMATTR InstName V10
SYMATTR Value 1
SYMBOL nand_2 256 -432 R0
SYMATTR InstName X2
SYMBOL nand_4 224 144 R0
SYMATTR InstName X4
SYMBOL decoder 1408 -80 R0
SYMATTR InstName X5
SYMBOL voltage 256 -496 R180
WINDOW 0 24 96 Left 2
WINDOW 3 24 16 Left 2
WINDOW 123 0 0 Left 0
WINDOW 39 0 0 Left 0
SYMATTR InstName V12
SYMATTR Value 1
SYMBOL res 352 -400 R0
SYMATTR InstName R2
SYMATTR Value 5000k
SYMBOL cap 480 -384 R0
SYMATTR InstName C2
SYMATTR Value 10f
SYMBOL voltage -32 -512 R90
WINDOW 0 -32 56 VBottom 2
WINDOW 3 32 56 VTop 2
WINDOW 123 0 0 Left 0
WINDOW 39 0 0 Left 0
SYMATTR InstName V13
SYMATTR Value PULSE(0 1 10n 10p 10p 20n 40n)
SYMBOL voltage -32 -352 R90
WINDOW 0 -32 56 VBottom 2
WINDOW 3 32 56 VTop 2
WINDOW 123 0 0 Left 0
WINDOW 39 0 0 Left 0
SYMATTR InstName V15
SYMATTR Value PULSE(0 1 10n 10p 10p 40n 80n)
SYMBOL res 1792 -320 R180
WINDOW 0 36 76 Left 2
WINDOW 3 36 40 Left 2
SYMATTR InstName R3
SYMATTR Value 100k
SYMBOL cap 1664 -336 R180
WINDOW 0 24 56 Left 2
WINDOW 3 24 8 Left 2
SYMATTR InstName C3
SYMATTR Value 100f
SYMBOL res 1984 -320 R180
WINDOW 0 36 76 Left 2
WINDOW 3 36 40 Left 2
SYMATTR InstName R4
SYMATTR Value 100k
SYMBOL cap 1856 -336 R180
WINDOW 0 24 56 Left 2
WINDOW 3 24 8 Left 2
SYMATTR InstName C4
SYMATTR Value 100f
SYMBOL res 2176 -320 R180
WINDOW 0 36 76 Left 2
WINDOW 3 36 40 Left 2
SYMATTR InstName R5
SYMATTR Value 100k
SYMBOL cap 2048 -336 R180
WINDOW 0 24 56 Left 2
WINDOW 3 24 8 Left 2
SYMATTR InstName C5
SYMATTR Value 100f
SYMBOL res 2368 -320 R180
WINDOW 0 36 76 Left 2
WINDOW 3 36 40 Left 2
SYMATTR InstName R6
SYMATTR Value 100k
SYMBOL cap 2240 -336 R180
WINDOW 0 24 56 Left 2
WINDOW 3 24 8 Left 2
SYMATTR InstName C6
SYMATTR Value 100f
SYMBOL res 2208 224 R0
SYMATTR InstName R7
SYMATTR Value 100k
SYMBOL cap 2336 240 R0
SYMATTR InstName C7
SYMATTR Value 100f
SYMBOL res 2016 224 R0
SYMATTR InstName R8
SYMATTR Value 100k
SYMBOL cap 2144 240 R0
SYMATTR InstName C8
SYMATTR Value 100f
SYMBOL res 1824 224 R0
SYMATTR InstName R9
SYMATTR Value 100k
SYMBOL cap 1952 240 R0
SYMATTR InstName C9
SYMATTR Value 100f
SYMBOL res 1632 224 R0
SYMATTR InstName R10
SYMATTR Value 100k
SYMBOL cap 1760 240 R0
SYMATTR InstName C10
SYMATTR Value 100f
TEXT -232 464 Left 2 !.tran 160n
