Version 4
SHEET 1 1884 788
WIRE 544 224 544 208
WIRE 688 240 688 208
WIRE 624 272 608 272
WIRE 656 272 624 272
WIRE 672 272 656 272
WIRE 784 272 768 272
WIRE 832 272 784 272
WIRE 960 320 960 304
WIRE 832 352 832 272
WIRE 896 352 832 352
WIRE 1056 368 1040 368
WIRE 896 384 832 384
WIRE 544 416 544 400
WIRE 688 432 688 400
WIRE 624 464 608 464
WIRE 656 464 624 464
WIRE 672 464 656 464
WIRE 784 464 768 464
WIRE 832 464 832 384
WIRE 832 464 784 464
FLAG 480 256 VIN1
IOPIN 480 256 In
FLAG 480 288 VIN2
IOPIN 480 288 In
FLAG 544 208 VDD
IOPIN 544 208 In
FLAG 688 208 VDD
IOPIN 688 208 In
FLAG 480 448 VIN3
IOPIN 480 448 In
FLAG 480 480 VIN4
IOPIN 480 480 In
FLAG 544 400 VDD
IOPIN 544 400 In
FLAG 688 400 VDD
IOPIN 688 400 In
FLAG 960 304 VDD
IOPIN 960 304 In
FLAG 1056 368 VOUT
IOPIN 1056 368 Out
SYMBOL nand_2 544 272 R0
SYMATTR InstName X1
SYMBOL inverter_2 640 272 R0
SYMATTR InstName X3
SYMBOL nand_2 544 464 R0
SYMATTR InstName X2
SYMBOL inverter_2 640 464 R0
SYMATTR InstName X4
SYMBOL nand_2 960 368 R0
SYMATTR InstName X5
